Circuit: * E:\Notes\LTspice\LTspice_learnings\Simple voltage divider circuit with effect of capacitor and inductor\Simple voltage divider circuit with effect of capacitor for ramp voltage.asc

.OP point found by inspection.

Date: Wed Feb 15 01:08:59 2023
Total elapsed time: 0.048 seconds.

tnom = 27
temp = 27
method = modified trap
totiter = 2100
traniter = 2100
tranpoints = 1051
accept = 1051
rejected = 0
matrix size = 4
fillins = 0
solver = Normal
Avg thread counts: 1.1/1.3/1.3/1.1
Matrix Compiler1: 118 bytes object code size  0.2/0.3/[0.1]
Matrix Compiler2: 248 bytes object code size  0.2/0.3/[0.1]

